<?xml version="1.0" encoding="UTF-8"?>

<!-- generated on 2025-04-02 16:33:22 by Eclipse SUMO sumo Version 1.20.0
-->

<configuration xmlns:xsi="http://www.w3.org/2001/XMLSchema-instance" xsi:noNamespaceSchemaLocation="http://sumo.dlr.de/xsd/sumoConfiguration.xsd">

    <input>
        <net-file value="RL_network_final_fixed.net.xml"/>
        <route-files value="RL_rou.rou.xml"/>
        <additional-files value="RL_taz.add.xml"/>
    </input>

</configuration>
