<?xml version="1.0" encoding="utf-8"?>
<additional>
 <taz color="blue" id="taz_0" shape="-5,70 5,70 5,60 -5,60 -5,70">
  <tazSource id="-E3" weight="1.00"/>
  <tazSink id="E2" weight="1.00"/>
 </taz>
 <taz color="blue" id="taz_1" shape="-130,-60 -120,-60 -120,-70 -130,-70 -130,-60">
  <tazSource id="-E0" weight="1.00"/>
  <tazSink id="E1" weight="1.00"/>
 </taz>
 <taz color="blue" id="taz_2" shape="-5,-150 5,-150 5,-160 -5,-160 -5,-150">
  <tazSource id="-E2" weight="1.00"/>
  <tazSink id="E3" weight="1.00"/>
 </taz>
 <taz color="blue" id="taz_3" shape="130,-60 140,-60 140,-70 130,-70 130,-60">
  <tazSource id="-E1" weight="1.00"/>
  <tazSink id="-E0" weight="1.00"/>
 </taz>
</additional>
