<?xml version="1.0" encoding="UTF-8"?>

<!-- generated on 2025-03-31 12:08:35 by Eclipse SUMO sumo Version 1.22.0
-->

<sumoConfiguration xmlns:xsi="http://www.w3.org/2001/XMLSchema-instance" xsi:noNamespaceSchemaLocation="http://sumo.dlr.de/xsd/sumoConfiguration.xsd">

    <input>
        <net-file value="RL_network.net.xml"/>
        <route-files value="RL_rou.rou.xml"/>
        <additional-files value="RL_taz.add.xml"/>
    </input>

</sumoConfiguration>
